55PasiveNets/SOURCE_1_Curr_Elem.Txt

CIRCUIT ELEMENT CURRENTS

(Currents into element from indicated bus)

Power Delivery Elements

  Bus Phase    Magnitude, A     Angle      (Real)   +j  (Imag)

ELEMENT = "Vsource.SOURCE"
1        1           1489.7 /_  107.3 =    -442.44 +j    1422.5
------------
1        4           1489.7 /_  -72.7 =     442.44 +j   -1422.5

ELEMENT = "Vsource.SOURCE_2"
1        2           9.4009 /_  150.8 =    -8.2027 +j    4.5927
------------
1        4           9.4009 /_  -29.2 =     8.2027 +j   -4.5927

ELEMENT = "Vsource.SOURCE_3"
1        3           9.6046 /_   28.5 =     8.4384 +j    4.5871
------------
1        4           9.6046 /_ -151.5 =    -8.4384 +j   -4.5871

ELEMENT = "Line.LINE1"
1        1           1489.7 /_  -72.7 =     442.44 +j   -1422.5
1        2           9.4009 /_  -29.2 =     8.2027 +j   -4.5927
1        3           9.6046 /_ -151.5 =    -8.4384 +j   -4.5871
1        4            442.6 /_  113.2 =    -174.57 +j    406.72
1    Resid           1059.3 /_  104.6 =     -267.64 +j    1024.9
------------
2        1           1489.7 /_  107.3 =    -442.44 +j    1422.5
2        2           9.3628 /_  150.7 =    -8.1685 +j    4.5757
2        3            9.565 /_   28.5 =     8.4026 +j    4.5701
2        4            442.6 /_  -66.8 =     174.57 +j   -406.72
2    Resid           1059.3 /_  -75.4 =      267.64 +j   -1024.9

ELEMENT = "Line.LINE2"
2        1           1489.7 /_  -72.7 =     442.44 +j   -1422.5
2        2           9.3628 /_  -29.3 =     8.1685 +j   -4.5757
2        3            9.565 /_ -151.5 =    -8.4026 +j   -4.5701
2        4           383.59 /_  114.8 =    -160.63 +j    348.34
2    Resid           1119.3 /_  104.6 =     -281.58 +j    1083.3
------------
3        1           1489.7 /_  107.3 =    -442.44 +j    1422.5
3        2           9.3247 /_  150.7 =    -8.1344 +j    4.5588
3        3           9.5254 /_   28.6 =     8.3667 +j    4.5531
3        4           383.59 /_  -65.2 =     160.63 +j   -348.34
3    Resid           1119.3 /_  -75.4 =      281.58 +j   -1083.3

ELEMENT = "Line.LINE3"
3        1           1489.7 /_  -72.7 =     442.44 +j   -1422.5
3        2           9.3247 /_  -29.3 =     8.1344 +j   -4.5588
3        3           9.5254 /_ -151.4 =    -8.3667 +j   -4.5531
3        4           333.97 /_  116.7 =    -149.83 +j    298.47
3    Resid           1170.3 /_  104.5 =     -292.38 +j    1133.2
------------
4        1           1489.8 /_  107.3 =    -442.44 +j    1422.5
4        2           9.2866 /_  150.7 =    -8.1002 +j    4.5417
4        3           9.4857 /_   28.6 =     8.3308 +j    4.5361
4        4           333.97 /_  -63.3 =     149.83 +j   -298.47
4    Resid           1170.3 /_  -75.5 =      292.38 +j   -1133.2

ELEMENT = "Line.LINE4"
4        1           1489.8 /_  -72.7 =     442.44 +j   -1422.5
4        2           9.2866 /_  -29.3 =     8.1002 +j   -4.5417
4        3           9.4857 /_ -151.4 =    -8.3308 +j   -4.5361
4        4           292.44 /_  118.9 =    -141.55 +j     255.9
4    Resid           1213.6 /_  104.3 =     -300.66 +j    1175.7
------------
5        1           1489.8 /_  107.3 =    -442.44 +j    1422.6
5        2           9.2484 /_  150.7 =     -8.066 +j    4.5247
5        3           9.4461 /_   28.6 =      8.295 +j     4.519
5        4           292.44 /_  -61.1 =     141.55 +j    -255.9
5    Resid           1213.6 /_  -75.7 =      300.66 +j   -1175.7

ELEMENT = "Line.LINE5"
5        1           1489.8 /_  -72.7 =     442.44 +j   -1422.6
5        2           9.2484 /_  -29.3 =      8.066 +j   -4.5247
5        3           9.4461 /_ -151.4 =     -8.295 +j    -4.519
5        4            257.9 /_  121.6 =    -135.28 +j    219.57
5    Resid           1250.3 /_  104.2 =     -306.93 +j    1212.1
------------
6        1           1489.8 /_  107.3 =    -442.44 +j    1422.6
6        2           9.2103 /_  150.7 =    -8.0318 +j    4.5077
6        3           9.4064 /_   28.6 =     8.2591 +j     4.502
6        4            257.9 /_  -58.4 =     135.28 +j   -219.57
6    Resid           1250.3 /_  -75.8 =      306.93 +j     -1212

ELEMENT = "Line.LINE6"
6        1           1489.8 /_  -72.7 =     442.44 +j   -1422.6
6        2           9.2103 /_  -29.3 =     8.0318 +j   -4.5077
6        3           9.4064 /_ -151.4 =    -8.2591 +j    -4.502
6        4           229.39 /_  124.7 =     -130.6 +j    188.59
6    Resid           1281.5 /_  104.1 =     -311.61 +j      1243
------------
7        1           1489.9 /_  107.3 =    -442.44 +j    1422.6
7        2           9.1721 /_  150.7 =    -7.9976 +j    4.4906
7        3           9.3667 /_   28.6 =     8.2232 +j    4.4849
7        4           229.39 /_  -55.3 =      130.6 +j   -188.59
7    Resid           1281.5 /_  -75.9 =      311.61 +j     -1243

ELEMENT = "Line.LINE7"
7        1           1489.9 /_  -72.7 =     442.44 +j   -1422.6
7        2           9.1721 /_  -29.3 =     7.9976 +j   -4.4906
7        3           9.3667 /_ -151.4 =    -8.2232 +j   -4.4849
7        4           206.09 /_  128.1 =    -127.17 +j    162.17
7    Resid           1307.9 /_  103.9 =     -315.04 +j    1269.4
------------
8        1           1489.9 /_  107.3 =    -442.43 +j    1422.7
8        2            9.134 /_  150.7 =    -7.9635 +j    4.4735
8        3            9.327 /_   28.6 =     8.1873 +j    4.4678
8        4           206.09 /_  -51.9 =     127.18 +j   -162.17
8    Resid           1307.9 /_  -76.1 =      315.04 +j   -1269.4

ELEMENT = "Line.LINE8"
8        1           1489.9 /_  -72.7 =     442.43 +j   -1422.7
8        2            9.134 /_  -29.3 =     7.9635 +j   -4.4735
8        3            9.327 /_ -151.4 =    -8.1873 +j   -4.4678
8        4           187.26 /_  131.8 =    -124.74 +j    139.67
8    Resid           1330.4 /_  103.8 =     -317.47 +j    1291.9
------------
9        1           1489.9 /_  107.3 =    -442.43 +j    1422.7
9        2           9.0958 /_  150.7 =    -7.9293 +j    4.4564
9        3           9.2873 /_   28.6 =     8.1514 +j    4.4506
9        4           187.26 /_  -48.2 =     124.74 +j   -139.66
9    Resid           1330.4 /_  -76.2 =      317.47 +j   -1291.9

ELEMENT = "Line.LINE9"
9        1           1489.9 /_  -72.7 =     442.43 +j   -1422.7
9        2           9.0958 /_  -29.3 =     7.9293 +j   -4.4564
9        3           9.2873 /_ -151.4 =    -8.1514 +j   -4.4506
9        4           172.24 /_  135.6 =    -123.07 +j    120.49
9    Resid           1349.4 /_  103.7 =     -319.14 +j    1311.1
------------
10       1           1489.9 /_  107.3 =    -442.43 +j    1422.7
10       2           9.0576 /_  150.7 =    -7.8951 +j    4.4393
10       3           9.2476 /_   28.6 =     8.1155 +j    4.4335
10       4           172.24 /_  -44.4 =     123.08 +j   -120.49
10   Resid           1349.4 /_  -76.3 =      319.14 +j   -1311.1

ELEMENT = "Line.LINE10"
10       1           1489.9 /_  -72.7 =     442.43 +j   -1422.7
10       2           9.0576 /_  -29.3 =     7.8951 +j   -4.4393
10       3           9.2476 /_ -151.4 =    -8.1155 +j   -4.4335
10       4           160.42 /_  139.5 =       -122 +j    104.17
10   Resid           1365.5 /_  103.6 =     -320.21 +j    1327.4
------------
11       1             1490 /_  107.3 =    -442.43 +j    1422.8
11       2           9.0194 /_  150.6 =    -7.8609 +j    4.4222
11       3           9.2078 /_   28.7 =     8.0796 +j    4.4163
11       4           160.43 /_  -40.5 =        122 +j   -104.17
11   Resid           1365.5 /_  -76.4 =      320.21 +j   -1327.4

ELEMENT = "Line.LINE11"
11       1             1490 /_  -72.7 =     442.43 +j   -1422.8
11       2           9.0194 /_  -29.4 =     7.8609 +j   -4.4222
11       3           9.2078 /_ -151.3 =    -8.0796 +j   -4.4163
11       4           151.28 /_  143.4 =    -121.38 +j     90.28
11   Resid           1379.2 /_  103.5 =     -320.83 +j    1341.3
------------
12       1             1490 /_  107.3 =    -442.43 +j    1422.8
12       2           8.9812 /_  150.6 =    -7.8267 +j     4.405
12       3           9.1681 /_   28.7 =     8.0437 +j    4.3991
12       4           151.28 /_  -36.6 =     121.39 +j   -90.279
12   Resid           1379.2 /_  -76.5 =      320.83 +j   -1341.3

ELEMENT = "Line.LINE12"
12       1             1490 /_  -72.7 =     442.43 +j   -1422.8
12       2           8.9812 /_  -29.4 =     7.8267 +j    -4.405
12       3           9.1681 /_ -151.3 =    -8.0437 +j   -4.3991
12       4            144.3 /_  147.1 =    -121.11 +j    78.464
12   Resid           1390.7 /_  103.3 =      -321.1 +j    1353.1
------------
13       1             1490 /_  107.3 =    -442.43 +j    1422.8
13       2            8.943 /_  150.6 =    -7.7926 +j    4.3878
13       3           9.1283 /_   28.7 =     8.0078 +j    4.3819
13       4           144.31 /_  -32.9 =     121.11 +j   -78.464
13   Resid           1390.7 /_  -76.7 =       321.1 +j   -1353.1

ELEMENT = "Line.LINE13"
13       1             1490 /_  -72.7 =     442.43 +j   -1422.8
13       2            8.943 /_  -29.4 =     7.7926 +j   -4.3878
13       3           9.1283 /_ -151.3 =    -8.0078 +j   -4.3819
13       4           139.08 /_  150.5 =    -121.09 +j    68.418
13   Resid           1400.5 /_  103.3 =     -321.13 +j    1363.2
------------
14       1             1490 /_  107.3 =    -442.43 +j    1422.9
14       2           8.9047 /_  150.6 =    -7.7584 +j    4.3706
14       3           9.0886 /_   28.7 =     7.9719 +j    4.3647
14       4           139.08 /_  -29.5 =     121.09 +j   -68.417
14   Resid           1400.5 /_  -76.7 =      321.13 +j   -1363.2

ELEMENT = "Line.LINE14"
14       1             1490 /_  -72.7 =     442.43 +j   -1422.9
14       2           8.9047 /_  -29.4 =     7.7584 +j   -4.3706
14       3           9.0886 /_ -151.3 =    -7.9719 +j   -4.3647
14       4           135.23 /_  153.7 =    -121.25 +j     59.88
14   Resid           1408.8 /_  103.2 =     -320.97 +j    1371.7
------------
15       1           1490.1 /_  107.3 =    -442.43 +j    1422.9
15       2           8.8665 /_  150.6 =    -7.7242 +j    4.3534
15       3           9.0488 /_   28.7 =      7.936 +j    4.3475
15       4           135.23 /_  -26.3 =     121.25 +j    -59.88
15   Resid           1408.8 /_  -76.8 =      320.97 +j   -1371.7

ELEMENT = "Line.LINE15"
15       1           1490.1 /_  -72.7 =     442.43 +j   -1422.9
15       2           8.8665 /_  -29.4 =     7.7242 +j   -4.3534
15       3           9.0488 /_ -151.3 =     -7.936 +j   -4.3475
15       4           132.44 /_  156.6 =    -121.54 +j    52.628
15   Resid           1415.8 /_  103.1 =     -320.68 +j      1379
------------
16       1           1490.1 /_  107.3 =    -442.42 +j    1422.9
16       2           8.8282 /_  150.6 =      -7.69 +j    4.3362
16       3            9.009 /_   28.7 =     7.9001 +j    4.3302
16       4           132.44 /_  -23.4 =     121.54 +j   -52.627
16   Resid           1415.7 /_  -76.9 =      320.68 +j     -1379

ELEMENT = "Line.LINE16"
16       1           1490.1 /_  -72.7 =     442.42 +j   -1422.9
16       2           8.8282 /_  -29.4 =       7.69 +j   -4.3362
16       3            9.009 /_ -151.3 =    -7.9001 +j   -4.3302
16       4           130.47 /_  159.1 =    -121.91 +j    46.469
16   Resid           1421.7 /_  103.0 =      -320.3 +j    1385.1
------------
17       1           1490.1 /_  107.3 =    -442.42 +j    1422.9
17       2             8.79 /_  150.6 =    -7.6558 +j    4.3189
17       3           8.9692 /_   28.7 =     7.8642 +j    4.3129
17       4           130.47 /_  -20.9 =     121.91 +j   -46.469
17   Resid           1421.7 /_  -77.0 =       320.3 +j   -1385.1

ELEMENT = "Line.LINE17"
17       1           1490.1 /_  -72.7 =     442.42 +j   -1422.9
17       2             8.79 /_  -29.4 =     7.6558 +j   -4.3189
17       3           8.9692 /_ -151.3 =    -7.8642 +j   -4.3129
17       4           129.11 /_  161.4 =    -122.34 +j    41.243
17   Resid           1426.7 /_  103.0 =     -319.87 +j    1390.3
------------
18       1           1490.2 /_  107.3 =    -442.42 +j      1423
18       2           8.7517 /_  150.6 =    -7.6216 +j    4.3016
18       3           8.9295 /_   28.8 =     7.8283 +j    4.2956
18       4           129.11 /_  -18.6 =     122.34 +j   -41.242
18   Resid           1426.6 /_  -77.0 =      319.87 +j   -1390.3

ELEMENT = "Line.LINE18"
18       1           1490.2 /_  -72.7 =     442.42 +j     -1423
18       2           8.7517 /_  -29.4 =     7.6216 +j   -4.3016
18       3           8.9295 /_ -151.2 =    -7.8283 +j   -4.2956
18       4            128.2 /_  163.3 =     -122.8 +j    36.808
18   Resid           1430.9 /_  102.9 =     -319.42 +j    1394.8
------------
19       1           1490.2 /_  107.3 =    -442.42 +j      1423
19       2           8.7134 /_  150.5 =    -7.5874 +j    4.2843
19       3           8.8897 /_   28.8 =     7.7925 +j    4.2783
19       4            128.2 /_  -16.7 =      122.8 +j   -36.807
19   Resid           1430.9 /_  -77.1 =      319.41 +j   -1394.8

ELEMENT = "Line.LINE19"
19       1           1490.2 /_  -72.7 =     442.42 +j     -1423
19       2           8.7134 /_  -29.5 =     7.5874 +j   -4.2843
19       3           8.8897 /_ -151.2 =    -7.7925 +j   -4.2783
19       4           127.62 /_  165.0 =    -123.27 +j    33.048
19   Resid           1434.4 /_  102.8 =     -318.95 +j    1398.5
------------
20       1           1490.2 /_  107.3 =    -442.42 +j      1423
20       2           8.6751 /_  150.5 =    -7.5531 +j     4.267
20       3           8.8499 /_   28.8 =     7.7566 +j    4.2609
20       4           127.62 /_  -15.0 =     123.27 +j   -33.047
20   Resid           1434.4 /_  -77.2 =      318.95 +j   -1398.5

ELEMENT = "Line.LINE20"
20       1           1490.2 /_  -72.7 =     442.42 +j     -1423
20       2           8.6751 /_  -29.5 =     7.5531 +j    -4.267
20       3           8.8499 /_ -151.2 =    -7.7566 +j   -4.2609
20       4           127.29 /_  166.4 =    -123.74 +j    29.861
20   Resid           1437.4 /_  102.8 =     -318.48 +j    1401.7
------------
21       1           1490.2 /_  107.3 =    -442.42 +j    1423.1
21       2           8.6368 /_  150.5 =    -7.5189 +j    4.2496
21       3             8.81 /_   28.8 =     7.7207 +j    4.2436
21       4           127.29 /_  -13.6 =     123.74 +j    -29.86
21   Resid           1437.4 /_  -77.2 =      318.48 +j   -1401.7

ELEMENT = "Line.LINE21"
21       1           1490.2 /_  -72.7 =     442.42 +j   -1423.1
21       2           8.6368 /_  -29.5 =     7.5189 +j   -4.2496
21       3             8.81 /_ -151.2 =    -7.7207 +j   -4.2436
21       4           127.13 /_  167.7 =    -124.19 +j    27.161
21   Resid           1439.9 /_  102.8 =     -318.03 +j    1404.4
------------
22       1           1490.3 /_  107.3 =    -442.42 +j    1423.1
22       2           8.5984 /_  150.5 =    -7.4847 +j    4.2323
22       3           8.7702 /_   28.8 =     7.6848 +j    4.2262
22       4           127.13 /_  -12.3 =     124.19 +j    -27.16
22   Resid           1439.9 /_  -77.2 =      318.03 +j   -1404.4

ELEMENT = "Line.LINE22"
22       1           1490.3 /_  -72.7 =     442.42 +j   -1423.1
22       2           8.5984 /_  -29.5 =     7.4847 +j   -4.2323
22       3           8.7702 /_ -151.2 =    -7.6848 +j   -4.2262
22       4           127.08 /_  168.7 =    -124.62 +j    24.875
22   Resid           1442.1 /_  102.7 =     -317.59 +j    1406.7
------------
23       1           1490.3 /_  107.3 =    -442.42 +j    1423.1
23       2           8.5601 /_  150.5 =    -7.4505 +j    4.2149
23       3           8.7304 /_   28.8 =     7.6489 +j    4.2088
23       4           127.08 /_  -11.3 =     124.62 +j   -24.874
23   Resid           1442.1 /_  -77.3 =      317.59 +j   -1406.7

ELEMENT = "Line.LINE23"
23       1           1490.3 /_  -72.7 =     442.42 +j   -1423.1
23       2           8.5601 /_  -29.5 =     7.4505 +j   -4.2149
23       3           8.7304 /_ -151.2 =    -7.6489 +j   -4.2088
23       4           127.12 /_  169.6 =    -125.03 +j    22.939
23   Resid           1443.9 /_  102.7 =     -317.19 +j    1408.6
------------
24       1           1490.3 /_  107.3 =    -442.42 +j    1423.1
24       2           8.5217 /_  150.5 =    -7.4163 +j    4.1975
24       3           8.6905 /_   28.8 =      7.613 +j    4.1914
24       4           127.12 /_  -10.4 =     125.03 +j   -22.938
24   Resid           1443.9 /_  -77.3 =      317.18 +j   -1408.6

ELEMENT = "Line.LINE24"
24       1           1490.3 /_  -72.7 =     442.42 +j   -1423.1
24       2           8.5217 /_  -29.5 =     7.4163 +j   -4.1975
24       3           8.6905 /_ -151.2 =     -7.613 +j   -4.1914
24       4           127.21 /_  170.4 =    -125.42 +j    21.302
24   Resid           1445.4 /_  102.7 =      -316.8 +j    1410.2
------------
25       1           1490.4 /_  107.3 =    -442.41 +j    1423.2
25       2           8.4834 /_  150.5 =     -7.382 +j      4.18
25       3           8.6507 /_   28.8 =     7.5771 +j    4.1739
25       4           127.21 /_   -9.6 =     125.42 +j   -21.301
25   Resid           1445.4 /_  -77.3 =       316.8 +j   -1410.2

ELEMENT = "Line.LINE25"
25       1           1490.4 /_  -72.7 =     442.41 +j   -1423.2
25       2           8.4834 /_  -29.5 =      7.382 +j     -4.18
25       3           8.6507 /_ -151.2 =    -7.5771 +j   -4.1739
25       4           127.34 /_  171.0 =    -125.77 +j    19.917
25   Resid           1446.6 /_  102.6 =     -316.45 +j    1411.6
------------
26       1           1490.4 /_  107.3 =    -442.41 +j    1423.2
26       2            8.445 /_  150.5 =    -7.3478 +j    4.1626
26       3           8.6109 /_   28.9 =     7.5413 +j    4.1564
26       4           127.34 /_   -9.0 =     125.77 +j   -19.916
26   Resid           1446.6 /_  -77.4 =      316.45 +j   -1411.6

ELEMENT = "Line.LINE26"
26       1           1490.4 /_  -72.7 =     442.41 +j   -1423.2
26       2            8.445 /_  -29.5 =     7.3478 +j   -4.1626
26       3           8.6109 /_ -151.1 =    -7.5413 +j   -4.1564
26       4           127.48 /_  171.5 =     -126.1 +j    18.746
26   Resid           1447.7 /_  102.6 =     -316.12 +j    1412.8
------------
27       1           1490.4 /_  107.3 =    -442.41 +j    1423.2
27       2           8.4066 /_  150.5 =    -7.3136 +j    4.1451
27       3            8.571 /_   28.9 =     7.5054 +j     4.139
27       4           127.48 /_   -8.5 =      126.1 +j   -18.745
27   Resid           1447.7 /_  -77.4 =      316.12 +j   -1412.8

ELEMENT = "Line.LINE27"
27       1           1490.4 /_  -72.7 =     442.41 +j   -1423.2
27       2           8.4066 /_  -29.5 =     7.3136 +j   -4.1451
27       3            8.571 /_ -151.1 =    -7.5054 +j    -4.139
27       4           127.63 /_  172.0 =    -126.39 +j    17.758
27   Resid           1448.6 /_  102.6 =     -315.83 +j    1413.8
------------
28       1           1490.4 /_  107.3 =    -442.41 +j    1423.3
28       2           8.3682 /_  150.4 =    -7.2793 +j    4.1276
28       3           8.5311 /_   28.9 =     7.4695 +j    4.1215
28       4           127.64 /_   -8.0 =      126.4 +j   -17.756
28   Resid           1448.6 /_  -77.4 =      315.83 +j   -1413.8

ELEMENT = "Line.LINE28"
28       1           1490.4 /_  -72.7 =     442.41 +j   -1423.3
28       2           8.3682 /_  -29.6 =     7.2793 +j   -4.1276
28       3           8.5311 /_ -151.1 =    -7.4695 +j   -4.1215
28       4           127.79 /_  172.4 =    -126.66 +j    16.922
28   Resid           1449.4 /_  102.6 =     -315.56 +j    1414.6
------------
29       1           1490.5 /_  107.3 =    -442.41 +j    1423.3
29       2           8.3297 /_  150.4 =    -7.2451 +j    4.1101
29       3           8.4913 /_   28.9 =     7.4337 +j    4.1039
29       4           127.79 /_   -7.6 =     126.67 +j   -16.921
29   Resid           1449.3 /_  -77.4 =      315.55 +j   -1414.6

ELEMENT = "Line.LINE29"
29       1           1490.5 /_  -72.7 =     442.41 +j   -1423.3
29       2           8.3297 /_  -29.6 =     7.2451 +j   -4.1101
29       3           8.4913 /_ -151.1 =    -7.4337 +j   -4.1039
29       4           127.94 /_  172.7 =    -126.91 +j    16.217
29   Resid             1450 /_  102.6 =     -315.31 +j    1415.3
------------
30       1           1490.5 /_  107.3 =    -442.41 +j    1423.3
30       2           8.2913 /_  150.4 =    -7.2108 +j    4.0926
30       3           8.4514 /_   28.9 =     7.3978 +j    4.0864
30       4           127.94 /_   -7.3 =     126.91 +j   -16.216
30   Resid             1450 /_  -77.4 =      315.31 +j   -1415.3

ELEMENT = "Line.LINE30"
30       1           1490.5 /_  -72.7 =     442.41 +j   -1423.3
30       2           8.2913 /_  -29.6 =     7.2108 +j   -4.0926
30       3           8.4514 /_ -151.1 =    -7.3978 +j   -4.0864
30       4           128.09 /_  173.0 =    -127.13 +j    15.623
30   Resid           1450.5 /_  102.5 =     -315.09 +j    1415.9
------------
31       1           1490.5 /_  107.3 =    -442.41 +j    1423.3
31       2           8.2528 /_  150.4 =    -7.1766 +j     4.075
31       3           8.4115 /_   28.9 =     7.3619 +j    4.0688
31       4           128.09 /_   -7.0 =     127.13 +j   -15.622
31   Resid           1450.5 /_  -77.5 =      315.09 +j   -1415.9

ELEMENT = "Line.LINE31"
31       1           1490.5 /_  -72.7 =     442.41 +j   -1423.3
31       2           8.2528 /_  -29.6 =     7.1766 +j    -4.075
31       3           8.4115 /_ -151.1 =    -7.3619 +j   -4.0688
31       4           128.22 /_  173.2 =    -127.33 +j    15.121
31   Resid           1450.9 /_  102.5 =     -314.89 +j    1416.4
------------
32       1           1490.5 /_  107.3 =    -442.41 +j    1423.4
32       2           8.2144 /_  150.4 =    -7.1423 +j    4.0575
32       3           8.3716 /_   28.9 =     7.3261 +j    4.0512
32       4           128.22 /_   -6.8 =     127.33 +j    -15.12
32   Resid           1450.9 /_  -77.5 =      314.89 +j   -1416.4

ELEMENT = "Line.LINE32"
32       1           1490.5 /_  -72.7 =     442.41 +j   -1423.4
32       2           8.2144 /_  -29.6 =     7.1423 +j   -4.0575
32       3           8.3716 /_ -151.1 =    -7.3261 +j   -4.0512
32       4           128.35 /_  173.4 =    -127.51 +j    14.698
32   Resid           1451.3 /_  102.5 =     -314.72 +j    1416.8
------------
33       1           1490.6 /_  107.3 =     -442.4 +j    1423.4
33       2           8.1759 /_  150.4 =    -7.1081 +j    4.0399
33       3           8.3317 /_   29.0 =     7.2902 +j    4.0336
33       4           128.35 /_   -6.6 =     127.51 +j   -14.697
33   Resid           1451.3 /_  -77.5 =      314.72 +j   -1416.8

ELEMENT = "Line.LINE33"
33       1           1490.6 /_  -72.7 =      442.4 +j   -1423.4
33       2           8.1759 /_  -29.6 =     7.1081 +j   -4.0399
33       3           8.3317 /_ -151.0 =    -7.2902 +j   -4.0336
33       4           128.47 /_  173.6 =    -127.66 +j    14.342
33   Resid           1451.6 /_  102.5 =     -314.56 +j    1417.1
------------
34       1           1490.6 /_  107.3 =     -442.4 +j    1423.4
34       2           8.1374 /_  150.4 =    -7.0738 +j    4.0222
34       3           8.2918 /_   29.0 =     7.2544 +j     4.016
34       4           128.47 /_   -6.4 =     127.67 +j   -14.341
34   Resid           1451.6 /_  -77.5 =      314.56 +j   -1417.1

ELEMENT = "Line.LINE34"
34       1           1490.6 /_  -72.7 =      442.4 +j   -1423.4
34       2           8.1374 /_  -29.6 =     7.0738 +j   -4.0222
34       3           8.2918 /_ -151.0 =    -7.2544 +j    -4.016
34       4           128.57 /_  173.7 =     -127.8 +j    14.042
34   Resid           1451.9 /_  102.5 =     -314.42 +j    1417.4
------------
35       1           1490.6 /_  107.3 =     -442.4 +j    1423.5
35       2           8.0989 /_  150.4 =    -7.0395 +j    4.0046
35       3           8.2519 /_   29.0 =     7.2185 +j    3.9983
35       4           128.57 /_   -6.3 =     127.81 +j   -14.041
35   Resid           1451.9 /_  -77.5 =      314.42 +j   -1417.4

ELEMENT = "Line.LINE35"
35       1           1490.6 /_  -72.7 =      442.4 +j   -1423.5
35       2           8.0989 /_  -29.6 =     7.0395 +j   -4.0046
35       3           8.2519 /_ -151.0 =    -7.2185 +j   -3.9983
35       4           128.67 /_  173.8 =    -127.93 +j     13.79
35   Resid           1452.1 /_  102.5 =     -314.29 +j    1417.7
------------
36       1           1490.6 /_  107.3 =     -442.4 +j    1423.5
36       2           8.0604 /_  150.4 =    -7.0053 +j     3.987
36       3            8.212 /_   29.0 =     7.1827 +j    3.9807
36       4           128.67 /_   -6.2 =     127.93 +j   -13.789
36   Resid           1452.1 /_  -77.5 =      314.29 +j   -1417.7

ELEMENT = "Line.LINE36"
36       1           1490.6 /_  -72.7 =      442.4 +j   -1423.5
36       2           8.0604 /_  -29.6 =     7.0053 +j    -3.987
36       3            8.212 /_ -151.0 =    -7.1827 +j   -3.9807
36       4           128.76 /_  173.9 =    -128.04 +j    13.578
36   Resid           1452.3 /_  102.5 =     -314.18 +j    1417.9
------------
37       1           1490.7 /_  107.3 =     -442.4 +j    1423.5
37       2           8.0218 /_  150.3 =     -6.971 +j    3.9693
37       3            8.172 /_   29.0 =     7.1468 +j     3.963
37       4           128.76 /_   -6.1 =     128.04 +j   -13.576
37   Resid           1452.3 /_  -77.5 =      314.18 +j   -1417.9

ELEMENT = "Line.LINE37"
37       1           1490.7 /_  -72.7 =      442.4 +j   -1423.5
37       2           8.0218 /_  -29.7 =      6.971 +j   -3.9693
37       3            8.172 /_ -151.0 =    -7.1468 +j    -3.963
37       4           128.84 /_  174.0 =    -128.14 +j    13.399
37   Resid           1452.4 /_  102.5 =     -314.09 +j      1418
------------
38       1           1490.7 /_  107.3 =     -442.4 +j    1423.5
38       2           7.9833 /_  150.3 =    -6.9367 +j    3.9516
38       3           8.1321 /_   29.0 =      7.111 +j    3.9453
38       4           128.84 /_   -6.0 =     128.14 +j   -13.398
38   Resid           1452.4 /_  -77.5 =      314.09 +j     -1418

ELEMENT = "Line.LINE38"
38       1           1490.7 /_  -72.7 =      442.4 +j   -1423.5
38       2           7.9833 /_  -29.7 =     6.9367 +j   -3.9516
38       3           8.1321 /_ -151.0 =     -7.111 +j   -3.9453
38       4           128.91 /_  174.1 =    -128.22 +j    13.249
38   Resid           1452.5 /_  102.5 =        -314 +j    1418.2
------------
39       1           1490.7 /_  107.3 =     -442.4 +j    1423.6
39       2           7.9447 /_  150.3 =    -6.9024 +j    3.9338
39       3           8.0922 /_   29.0 =     7.0751 +j    3.9275
39       4           128.91 /_   -5.9 =     128.22 +j   -13.248
39   Resid           1452.5 /_  -77.5 =         314 +j   -1418.2

ELEMENT = "Line.LINE39"
39       1           1490.7 /_  -72.7 =      442.4 +j   -1423.6
39       2           7.9447 /_  -29.7 =     6.9024 +j   -3.9338
39       3           8.0922 /_ -151.0 =    -7.0751 +j   -3.9275
39       4           128.97 /_  174.2 =     -128.3 +j    13.123
39   Resid           1452.6 /_  102.5 =     -313.93 +j    1418.3
------------
40       1           1490.8 /_  107.3 =     -442.4 +j    1423.6
40       2           7.9061 /_  150.3 =    -6.8681 +j    3.9161
40       3           8.0522 /_   29.0 =     7.0393 +j    3.9098
40       4           128.97 /_   -5.8 =      128.3 +j   -13.122
40   Resid           1452.6 /_  -77.5 =      313.92 +j   -1418.3

ELEMENT = "Line.LINE40"
40       1           1490.8 /_  -72.7 =      442.4 +j   -1423.6
40       2           7.9061 /_  -29.7 =     6.8681 +j   -3.9161
40       3           8.0522 /_ -151.0 =    -7.0393 +j   -3.9098
40       4           129.02 /_  174.2 =    -128.37 +j    13.017
40   Resid           1452.7 /_  102.5 =     -313.86 +j    1418.4
------------
41       1           1490.8 /_  107.3 =    -442.39 +j    1423.6
41       2           7.8676 /_  150.3 =    -6.8338 +j    3.8983
41       3           8.0122 /_   29.1 =     7.0035 +j     3.892
41       4           129.03 /_   -5.8 =     128.37 +j   -13.016
41   Resid           1452.7 /_  -77.5 =      313.86 +j   -1418.4

ELEMENT = "Line.LINE41"
41       1           1490.8 /_  -72.7 =     442.39 +j   -1423.6
41       2           7.8676 /_  -29.7 =     6.8338 +j   -3.8983
41       3           8.0122 /_ -150.9 =    -7.0035 +j    -3.892
41       4           129.07 /_  174.3 =    -128.42 +j    12.928
41   Resid           1452.8 /_  102.5 =      -313.8 +j    1418.5
------------
42       1           1490.8 /_  107.3 =    -442.39 +j    1423.7
42       2            7.829 /_  150.3 =    -6.7996 +j    3.8806
42       3           7.9723 /_   29.1 =     6.9676 +j    3.8742
42       4           129.07 /_   -5.7 =     128.43 +j   -12.927
42   Resid           1452.8 /_  -77.5 =       313.8 +j   -1418.5

ELEMENT = "Line.LINE42"
42       1           1490.8 /_  -72.7 =     442.39 +j   -1423.7
42       2            7.829 /_  -29.7 =     6.7996 +j   -3.8806
42       3           7.9723 /_ -150.9 =    -6.9676 +j   -3.8742
42       4           129.12 /_  174.3 =    -128.47 +j    12.854
42   Resid           1452.8 /_  102.5 =     -313.75 +j    1418.6
------------
43       1           1490.8 /_  107.3 =    -442.39 +j    1423.7
43       2           7.7903 /_  150.3 =    -6.7653 +j    3.8628
43       3           7.9323 /_   29.1 =     6.9318 +j    3.8564
43       4           129.12 /_   -5.7 =     128.48 +j   -12.852
43   Resid           1452.8 /_  -77.5 =      313.75 +j   -1418.5

ELEMENT = "Line.LINE43"
43       1           1490.8 /_  -72.7 =     442.39 +j   -1423.7
43       2           7.7903 /_  -29.7 =     6.7653 +j   -3.8628
43       3           7.9323 /_ -150.9 =    -6.9318 +j   -3.8564
43       4           129.15 /_  174.3 =    -128.52 +j    12.791
43   Resid           1452.9 /_  102.5 =     -313.71 +j    1418.6
------------
44       1           1490.9 /_  107.3 =    -442.39 +j    1423.7
44       2           7.7517 /_  150.3 =    -6.7309 +j    3.8449
44       3           7.8923 /_   29.1 =      6.896 +j    3.8386
44       4           129.16 /_   -5.7 =     128.52 +j    -12.79
44   Resid           1452.9 /_  -77.5 =      313.71 +j   -1418.6

ELEMENT = "Line.LINE44"
44       1           1490.9 /_  -72.7 =     442.39 +j   -1423.7
44       2           7.7517 /_  -29.7 =     6.7309 +j   -3.8449
44       3           7.8923 /_ -150.9 =     -6.896 +j   -3.8386
44       4           129.19 /_  174.3 =    -128.56 +j    12.739
44   Resid           1452.9 /_  102.5 =     -313.67 +j    1418.6
------------
45       1           1490.9 /_  107.3 =    -442.39 +j    1423.7
45       2           7.7131 /_  150.3 =    -6.6966 +j    3.8271
45       3           7.8523 /_   29.1 =     6.8601 +j    3.8207
45       4           129.19 /_   -5.7 =     128.56 +j   -12.737
45   Resid           1452.9 /_  -77.5 =      313.67 +j   -1418.6

ELEMENT = "Line.LINE45"
45       1           1490.9 /_  -72.7 =     442.39 +j   -1423.7
45       2           7.7131 /_  -29.7 =     6.6966 +j   -3.8271
45       3           7.8523 /_ -150.9 =    -6.8601 +j   -3.8207
45       4           129.22 /_  174.4 =    -128.59 +j    12.695
45   Resid           1452.9 /_  102.5 =     -313.63 +j    1418.7
------------
46       1           1490.9 /_  107.3 =    -442.39 +j    1423.8
46       2           7.6744 /_  150.2 =    -6.6623 +j    3.8092
46       3           7.8124 /_   29.1 =     6.8243 +j    3.8028
46       4           129.22 /_   -5.6 =     128.59 +j   -12.693
46   Resid           1452.9 /_  -77.5 =      313.63 +j   -1418.7

ELEMENT = "Line.LINE46"
46       1           1490.9 /_  -72.7 =     442.39 +j   -1423.8
46       2           7.6744 /_  -29.8 =     6.6623 +j   -3.8092
46       3           7.8124 /_ -150.9 =    -6.8243 +j   -3.8028
46       4           129.24 /_  174.4 =    -128.62 +j    12.658
46   Resid             1453 /_  102.5 =     -313.61 +j    1418.7
------------
47       1           1490.9 /_  107.3 =    -442.39 +j    1423.8
47       2           7.6357 /_  150.2 =     -6.628 +j    3.7913
47       3           7.7724 /_   29.1 =     6.7885 +j    3.7849
47       4           129.24 /_   -5.6 =     128.62 +j   -12.657
47   Resid             1453 /_  -77.5 =       313.6 +j   -1418.7

ELEMENT = "Line.LINE47"
47       1           1490.9 /_  -72.7 =     442.39 +j   -1423.8
47       2           7.6357 /_  -29.8 =      6.628 +j   -3.7913
47       3           7.7724 /_ -150.9 =    -6.7885 +j   -3.7849
47       4           129.27 /_  174.4 =    -128.65 +j    12.627
47   Resid             1453 /_  102.5 =     -313.58 +j    1418.7
------------
48       1             1491 /_  107.3 =    -442.39 +j    1423.8
48       2           7.5971 /_  150.2 =    -6.5937 +j    3.7734
48       3           7.7324 /_   29.2 =     6.7527 +j     3.767
48       4           129.27 /_   -5.6 =     128.65 +j   -12.626
48   Resid             1453 /_  -77.5 =      313.58 +j   -1418.7

ELEMENT = "Line.LINE48"
48       1             1491 /_  -72.7 =     442.39 +j   -1423.8
48       2           7.5971 /_  -29.8 =     6.5937 +j   -3.7734
48       3           7.7324 /_ -150.8 =    -6.7527 +j    -3.767
48       4           129.28 /_  174.4 =    -128.67 +j    12.601
48   Resid             1453 /_  102.5 =     -313.56 +j    1418.8
------------
49       1             1491 /_  107.3 =    -442.39 +j    1423.8
49       2           7.5584 /_  150.2 =    -6.5594 +j    3.7555
49       3           7.6923 /_   29.2 =     6.7169 +j    3.7491
49       4           129.29 /_   -5.6 =     128.67 +j     -12.6
49   Resid             1453 /_  -77.5 =      313.56 +j   -1418.7

ELEMENT = "Line.LINE49"
49       1             1491 /_  -72.7 =     442.39 +j   -1423.8
49       2           7.5584 /_  -29.8 =     6.5594 +j   -3.7555
49       3           7.6923 /_ -150.8 =    -6.7169 +j   -3.7491
49       4            129.3 /_  174.4 =    -128.69 +j     12.58
49   Resid             1453 /_  102.5 =     -313.54 +j    1418.8
------------
50       1             1491 /_  107.3 =    -442.38 +j    1423.9
50       2           7.5197 /_  150.2 =     -6.525 +j    3.7375
50       3           7.6523 /_   29.2 =     6.6811 +j    3.7311
50       4            129.3 /_   -5.6 =     128.69 +j   -12.578
50   Resid             1453 /_  -77.5 =      313.54 +j   -1418.8

ELEMENT = "Line.LINE50"
50       1             1491 /_  -72.7 =     442.38 +j   -1423.9
50       2           7.5197 /_  -29.8 =      6.525 +j   -3.7375
50       3           7.6523 /_ -150.8 =    -6.6811 +j   -3.7311
50       4           129.32 /_  174.4 =    -128.71 +j    12.562
50   Resid             1453 /_  102.5 =     -313.52 +j    1418.8
------------
51       1             1491 /_  107.3 =    -442.38 +j    1423.9
51       2           7.4809 /_  150.2 =    -6.4907 +j    3.7195
51       3           7.6123 /_   29.2 =     6.6453 +j    3.7131
51       4           129.32 /_   -5.6 =     128.71 +j    -12.56
51   Resid             1453 /_  -77.5 =      313.52 +j   -1418.8

ELEMENT = "Line.LINE51"
51       1             1491 /_  -72.7 =     442.38 +j   -1423.9
51       2           7.4809 /_  -29.8 =     6.4907 +j   -3.7195
51       3           7.6123 /_ -150.8 =    -6.6453 +j   -3.7131
51       4           129.33 /_  174.4 =    -128.72 +j    12.547
51   Resid             1453 /_  102.5 =     -313.51 +j    1418.8
------------
52       1           1491.1 /_  107.3 =    -442.38 +j    1423.9
52       2           7.4422 /_  150.2 =    -6.4564 +j    3.7016
52       3           7.5723 /_   29.2 =     6.6095 +j    3.6951
52       4           129.33 /_   -5.6 =     128.72 +j   -12.545
52   Resid             1453 /_  -77.5 =      313.51 +j   -1418.8

ELEMENT = "Line.LINE52"
52       1           1491.1 /_  -72.7 =     442.38 +j   -1423.9
52       2           7.4422 /_  -29.8 =     6.4564 +j   -3.7016
52       3           7.5723 /_ -150.8 =    -6.6095 +j   -3.6951
52       4           129.34 /_  174.4 =    -128.73 +j    12.534
52   Resid             1453 /_  102.5 =      -313.5 +j    1418.8
------------
53       1           1491.1 /_  107.3 =    -442.38 +j    1423.9
53       2           7.4034 /_  150.2 =     -6.422 +j    3.6835
53       3           7.5322 /_   29.2 =     6.5737 +j    3.6771
53       4           129.34 /_   -5.6 =     128.73 +j   -12.532
53   Resid             1453 /_  -77.5 =       313.5 +j   -1418.8

ELEMENT = "Line.LINE53"
53       1           1491.1 /_  -72.7 =     442.38 +j   -1423.9
53       2           7.4034 /_  -29.8 =      6.422 +j   -3.6835
53       3           7.5322 /_ -150.8 =    -6.5737 +j   -3.6771
53       4           129.35 /_  174.4 =    -128.74 +j    12.523
53   Resid             1453 /_  102.5 =     -313.49 +j    1418.8
------------
54       1           1491.1 /_  107.3 =    -442.38 +j      1424
54       2           7.3647 /_  150.2 =    -6.3877 +j    3.6655
54       3           7.4922 /_   29.2 =     6.5379 +j    3.6591
54       4           129.35 /_   -5.6 =     128.74 +j   -12.522
54   Resid             1453 /_  -77.5 =      313.49 +j   -1418.8

ELEMENT = "Line.LINE54"
54       1           1491.1 /_  -72.7 =     442.38 +j     -1424
54       2           7.3647 /_  -29.8 =     6.3877 +j   -3.6655
54       3           7.4922 /_ -150.8 =    -6.5379 +j   -3.6591
54       4           129.36 /_  174.4 =    -128.75 +j    12.514
54   Resid             1453 /_  102.5 =     -313.48 +j    1418.8
------------
55       1           1491.1 /_  107.3 =    -442.38 +j      1424
55       2           7.3259 /_  150.1 =    -6.3533 +j    3.6474
55       3           7.4521 /_   29.2 =     6.5021 +j     3.641
55       4           129.36 /_   -5.6 =     128.75 +j   -12.513
55   Resid             1453 /_  -77.5 =      313.48 +j   -1418.8

ELEMENT = "Line.LINE55"
55       1           1491.1 /_  -72.7 =     442.38 +j     -1424
55       2           7.3259 /_  -29.9 =     6.3533 +j   -3.6474
55       3           7.4521 /_ -150.8 =    -6.5021 +j    -3.641
55       4           129.36 /_  174.5 =    -128.76 +j    12.507
55   Resid             1453 /_  102.5 =     -313.47 +j    1418.8
------------
56       1           1491.2 /_  107.3 =    -442.38 +j      1424
56       2           7.2871 /_  150.1 =     -6.319 +j    3.6294
56       3            7.412 /_   29.3 =     6.4663 +j    3.6229
56       4           129.37 /_   -5.5 =     128.76 +j   -12.505
56   Resid             1453 /_  -77.5 =      313.47 +j   -1418.8

ELEMENT = "Line.LINE56"
56       1           1491.2 /_  -72.7 =     442.38 +j     -1424
56       2           7.2871 /_  -29.9 =      6.319 +j   -3.6294
56       3            7.412 /_ -150.7 =    -6.4663 +j   -3.6229
56       4           129.37 /_  174.5 =    -128.77 +j      12.5
56   Resid             1453 /_  102.5 =     -313.46 +j    1418.8
------------
57       1           1491.2 /_  107.3 =    -442.38 +j      1424
57       2           7.2483 /_  150.1 =    -6.2846 +j    3.6113
57       3            7.372 /_   29.3 =     6.4305 +j    3.6048
57       4           129.37 /_   -5.5 =     128.77 +j   -12.499
57   Resid             1453 /_  -77.5 =      313.46 +j   -1418.8

ELEMENT = "Line.LINE57"
57       1           1491.2 /_  -72.7 =     442.38 +j     -1424
57       2           7.2483 /_  -29.9 =     6.2846 +j   -3.6113
57       3            7.372 /_ -150.7 =    -6.4305 +j   -3.6048
57       4           129.38 /_  174.5 =    -128.77 +j    12.495
57   Resid             1453 /_  102.5 =     -313.46 +j    1418.8
------------
58       1           1491.2 /_  107.3 =    -442.38 +j    1424.1
58       2           7.2095 /_  150.1 =    -6.2503 +j    3.5931
58       3           7.3319 /_   29.3 =     6.3947 +j    3.5867
58       4           129.38 /_   -5.5 =     128.77 +j   -12.493
58   Resid             1453 /_  -77.5 =      313.46 +j   -1418.8

ELEMENT = "Line.LINE58"
58       1           1491.2 /_  -72.7 =     442.38 +j   -1424.1
58       2           7.2095 /_  -29.9 =     6.2503 +j   -3.5931
58       3           7.3319 /_ -150.7 =    -6.3947 +j   -3.5867
58       4           129.38 /_  174.5 =    -128.78 +j     12.49
58   Resid             1453 /_  102.5 =     -313.46 +j    1418.8
------------
59       1           1491.2 /_  107.3 =    -442.37 +j    1424.1
59       2           7.1707 /_  150.1 =    -6.2159 +j     3.575
59       3           7.2918 /_   29.3 =     6.3589 +j    3.5686
59       4           129.38 /_   -5.5 =     128.78 +j   -12.489
59   Resid             1453 /_  -77.5 =      313.45 +j   -1418.8

ELEMENT = "Line.LINE59"
59       1           1491.2 /_  -72.7 =     442.37 +j   -1424.1
59       2           7.1707 /_  -29.9 =     6.2159 +j    -3.575
59       3           7.2918 /_ -150.7 =    -6.3589 +j   -3.5686
59       4           129.38 /_  174.5 =    -128.78 +j    12.487
59   Resid             1453 /_  102.5 =     -313.45 +j    1418.8
------------
60       1           1491.3 /_  107.3 =    -442.37 +j    1424.1
60       2           7.1318 /_  150.1 =    -6.1816 +j    3.5568
60       3           7.2517 /_   29.3 =     6.3232 +j    3.5504
60       4           129.38 /_   -5.5 =     128.78 +j   -12.485
60   Resid             1453 /_  -77.5 =      313.45 +j   -1418.7

ELEMENT = "Line.LINE60"
60       1           1491.3 /_  -72.7 =     442.37 +j   -1424.1
60       2           7.1318 /_  -29.9 =     6.1816 +j   -3.5568
60       3           7.2517 /_ -150.7 =    -6.3232 +j   -3.5504
60       4           129.39 /_  174.5 =    -128.78 +j    12.483
60   Resid             1453 /_  102.5 =     -313.45 +j    1418.7
------------
61       1           1491.3 /_  107.3 =    -442.37 +j    1424.2
61       2            7.093 /_  150.1 =    -6.1472 +j    3.5387
61       3           7.2116 /_   29.3 =     6.2874 +j    3.5322
61       4           129.39 /_   -5.5 =     128.78 +j   -12.482
61   Resid             1453 /_  -77.5 =      313.45 +j   -1418.7

ELEMENT = "Line.LINE61"
61       1           1491.3 /_  -72.7 =     442.37 +j   -1424.2
61       2            7.093 /_  -29.9 =     6.1472 +j   -3.5387
61       3           7.2116 /_ -150.7 =    -6.2874 +j   -3.5322
61       4           129.39 /_  174.5 =    -128.79 +j     12.48
61   Resid             1453 /_  102.5 =     -313.45 +j    1418.7
------------
62       1           1491.3 /_  107.3 =    -442.37 +j    1424.2
62       2           7.0541 /_  150.1 =    -6.1128 +j    3.5204
62       3           7.1715 /_   29.3 =     6.2516 +j     3.514
62       4           129.39 /_   -5.5 =     128.79 +j   -12.479
62   Resid           1452.9 /_  -77.5 =      313.44 +j   -1418.7

ELEMENT = "Line.LINE62"
62       1           1491.3 /_  -72.7 =     442.37 +j   -1424.2
62       2           7.0541 /_  -29.9 =     6.1128 +j   -3.5204
62       3           7.1715 /_ -150.7 =    -6.2516 +j    -3.514
62       4           129.39 /_  174.5 =    -128.79 +j    12.478
62   Resid           1452.9 /_  102.5 =     -313.44 +j    1418.7
------------
63       1           1491.3 /_  107.3 =    -442.37 +j    1424.2
63       2           7.0152 /_  150.1 =    -6.0784 +j    3.5022
63       3           7.1314 /_   29.4 =     6.2158 +j    3.4958
63       4           129.39 /_   -5.5 =     128.79 +j   -12.476
63   Resid           1452.9 /_  -77.5 =      313.44 +j   -1418.7

ELEMENT = "Line.LINE63"
63       1           1491.3 /_  -72.7 =     442.37 +j   -1424.2
63       2           7.0152 /_  -29.9 =     6.0784 +j   -3.5022
63       3           7.1314 /_ -150.6 =    -6.2158 +j   -3.4958
63       4           129.39 /_  174.5 =    -128.79 +j    12.476
63   Resid           1452.9 /_  102.5 =     -313.44 +j    1418.7
------------
64       1           1491.3 /_  107.3 =    -442.37 +j    1424.2
64       2           6.9763 /_  150.0 =    -6.0441 +j     3.484
64       3           7.0913 /_   29.4 =     6.1801 +j    3.4775
64       4           129.39 /_   -5.5 =     128.79 +j   -12.474
64   Resid           1452.9 /_  -77.5 =      313.44 +j   -1418.7

ELEMENT = "Line.LINE64"
64       1           1491.3 /_  -72.7 =     442.37 +j   -1424.2
64       2           6.9763 /_  -30.0 =     6.0441 +j    -3.484
64       3           7.0913 /_ -150.6 =    -6.1801 +j   -3.4775
64       4           129.39 /_  174.5 =    -128.79 +j    12.474
64   Resid           1452.9 /_  102.5 =     -313.44 +j    1418.7
------------
65       1           1491.4 /_  107.3 =    -442.37 +j    1424.3
65       2           6.9374 /_  150.0 =    -6.0097 +j    3.4657
65       3           7.0512 /_   29.4 =     6.1443 +j    3.4593
65       4           129.39 /_   -5.5 =     128.79 +j   -12.472
65   Resid           1452.9 /_  -77.5 =      313.44 +j   -1418.7

ELEMENT = "Line.LINE65"
65       1           1491.4 /_  -72.7 =     442.37 +j   -1424.3
65       2           6.9374 /_  -30.0 =     6.0097 +j   -3.4657
65       3           7.0512 /_ -150.6 =    -6.1443 +j   -3.4593
65       4           129.39 /_  174.5 =    -128.79 +j    12.472
65   Resid           1452.9 /_  102.5 =     -313.44 +j    1418.7
------------
66       1           1491.4 /_  107.3 =    -442.37 +j    1424.3
66       2           6.8985 /_  150.0 =    -5.9753 +j    3.4474
66       3            7.011 /_   29.4 =     6.1085 +j     3.441
66       4            129.4 /_   -5.5 =     128.79 +j    -12.47
66   Resid           1452.9 /_  -77.5 =      313.44 +j   -1418.7

ELEMENT = "Line.LINE66"
66       1           1491.4 /_  -72.7 =     442.37 +j   -1424.3
66       2           6.8985 /_  -30.0 =     5.9753 +j   -3.4474
66       3            7.011 /_ -150.6 =    -6.1085 +j    -3.441
66       4           129.39 /_  174.5 =    -128.79 +j    12.471
66   Resid           1452.9 /_  102.5 =     -313.44 +j    1418.7
------------
67       1           1491.4 /_  107.3 =    -442.36 +j    1424.3
67       2           6.8595 /_  150.0 =    -5.9409 +j    3.4291
67       3           6.9709 /_   29.4 =     6.0728 +j    3.4227
67       4            129.4 /_   -5.5 =     128.79 +j   -12.469
67   Resid           1452.9 /_  -77.5 =      313.44 +j   -1418.7

ELEMENT = "Line.LINE67"
67       1           1491.4 /_  -72.7 =     442.36 +j   -1424.3
67       2           6.8595 /_  -30.0 =     5.9409 +j   -3.4291
67       3           6.9709 /_ -150.6 =    -6.0728 +j   -3.4227
67       4            129.4 /_  174.5 =    -128.79 +j     12.47
67   Resid           1452.9 /_  102.5 =     -313.44 +j    1418.7
------------
68       1           1491.4 /_  107.3 =    -442.36 +j    1424.3
68       2           6.8206 /_  150.0 =    -5.9065 +j    3.4108
68       3           6.9307 /_   29.4 =      6.037 +j    3.4043
68       4            129.4 /_   -5.5 =     128.79 +j   -12.468
68   Resid           1452.9 /_  -77.5 =      313.44 +j   -1418.7

ELEMENT = "Line.LINE68"
68       1           1491.4 /_  -72.7 =     442.36 +j   -1424.3
68       2           6.8206 /_  -30.0 =     5.9065 +j   -3.4108
68       3           6.9307 /_ -150.6 =     -6.037 +j   -3.4043
68       4            129.4 /_  174.5 =    -128.79 +j    12.468
68   Resid           1452.9 /_  102.5 =     -313.44 +j    1418.7
------------
69       1           1491.5 /_  107.3 =    -442.36 +j    1424.4
69       2           6.7816 /_  150.0 =    -5.8721 +j    3.3924
69       3           6.8906 /_   29.4 =     6.0013 +j     3.386
69       4            129.4 /_   -5.5 =     128.79 +j   -12.466
69   Resid           1452.9 /_  -77.5 =      313.44 +j   -1418.7

ELEMENT = "Line.LINE69"
69       1           1491.5 /_  -72.7 =     442.36 +j   -1424.4
69       2           6.7816 /_  -30.0 =     5.8721 +j   -3.3924
69       3           6.8906 /_ -150.6 =    -6.0013 +j    -3.386
69       4            129.4 /_  174.5 =    -128.79 +j    12.467
69   Resid           1452.9 /_  102.5 =     -313.44 +j    1418.7
------------
70       1           1491.5 /_  107.3 =    -442.36 +j    1424.4
70       2           6.7426 /_  150.0 =    -5.8377 +j    3.3741
70       3           6.8504 /_   29.4 =     5.9655 +j    3.3676
70       4            129.4 /_   -5.5 =      128.8 +j   -12.465
70   Resid           1452.9 /_  -77.5 =      313.44 +j   -1418.7

ELEMENT = "Line.LINE70"
70       1           1491.5 /_  -72.7 =     442.36 +j   -1424.4
70       2           6.7426 /_  -30.0 =     5.8377 +j   -3.3741
70       3           6.8504 /_ -150.6 =    -5.9655 +j   -3.3676
70       4            129.4 /_  174.5 =    -128.79 +j    12.466
70   Resid           1452.9 /_  102.5 =     -313.44 +j    1418.7
------------
71       1           1491.5 /_  107.3 =    -442.36 +j    1424.4
71       2           6.7036 /_  150.0 =    -5.8033 +j    3.3557
71       3           6.8102 /_   29.5 =     5.9298 +j    3.3492
71       4            129.4 /_   -5.5 =      128.8 +j   -12.464
71   Resid           1452.9 /_  -77.5 =      313.44 +j   -1418.6

ELEMENT = "Line.LINE71"
71       1           1491.5 /_  -72.7 =     442.36 +j   -1424.4
71       2           6.7036 /_  -30.0 =     5.8033 +j   -3.3557
71       3           6.8102 /_ -150.5 =    -5.9298 +j   -3.3492
71       4            129.4 /_  174.5 =    -128.79 +j    12.465
71   Resid           1452.9 /_  102.5 =     -313.44 +j    1418.6
------------
72       1           1491.5 /_  107.3 =    -442.36 +j    1424.4
72       2           6.6646 /_  150.0 =    -5.7689 +j    3.3372
72       3           6.7701 /_   29.5 =      5.894 +j    3.3308
72       4            129.4 /_   -5.5 =     128.79 +j   -12.463
72   Resid           1452.8 /_  -77.5 =      313.44 +j   -1418.6

ELEMENT = "Line.LINE72"
72       1           1491.5 /_  -72.7 =     442.36 +j   -1424.4
72       2           6.6646 /_  -30.0 =     5.7689 +j   -3.3372
72       3           6.7701 /_ -150.5 =     -5.894 +j   -3.3308
72       4           129.39 /_  174.5 =    -128.79 +j    12.464
72   Resid           1452.8 /_  102.5 =     -313.44 +j    1418.6
------------
73       1           1491.6 /_  107.3 =    -442.36 +j    1424.5
73       2           6.6256 /_  149.9 =    -5.7344 +j    3.3188
73       3           6.7299 /_   29.5 =     5.8583 +j    3.3124
73       4            129.4 /_   -5.5 =     128.79 +j   -12.462
73   Resid           1452.8 /_  -77.5 =      313.44 +j   -1418.6

ELEMENT = "Line.LINE73"
73       1           1491.6 /_  -72.7 =     442.36 +j   -1424.5
73       2           6.6256 /_  -30.1 =     5.7344 +j   -3.3188
73       3           6.7299 /_ -150.5 =    -5.8583 +j   -3.3124
73       4           129.39 /_  174.5 =    -128.79 +j    12.463
73   Resid           1452.8 /_  102.5 =     -313.44 +j    1418.6
------------
74       1           1491.6 /_  107.3 =    -442.36 +j    1424.5
74       2           6.5865 /_  149.9 =       -5.7 +j    3.3004
74       3           6.6897 /_   29.5 =     5.8225 +j    3.2939
74       4            129.4 /_   -5.5 =     128.79 +j   -12.461
74   Resid           1452.8 /_  -77.5 =      313.44 +j   -1418.6

ELEMENT = "Line.LINE74"
74       1           1491.6 /_  -72.7 =     442.36 +j   -1424.5
74       2           6.5865 /_  -30.1 =        5.7 +j   -3.3004
74       3           6.6897 /_ -150.5 =    -5.8225 +j   -3.2939
74       4           129.39 /_  174.5 =    -128.79 +j    12.463
74   Resid           1452.8 /_  102.5 =     -313.44 +j    1418.6
------------
75       1           1491.6 /_  107.3 =    -442.36 +j    1424.5
75       2           6.5475 /_  149.9 =    -5.6656 +j    3.2819
75       3           6.6495 /_   29.5 =     5.7868 +j    3.2754
75       4            129.4 /_   -5.5 =     128.79 +j   -12.461
75   Resid           1452.8 /_  -77.5 =      313.44 +j   -1418.6

ELEMENT = "Line.LINE75"
75       1           1491.6 /_  -72.7 =     442.36 +j   -1424.5
75       2           6.5475 /_  -30.1 =     5.6656 +j   -3.2819
75       3           6.6495 /_ -150.5 =    -5.7868 +j   -3.2754
75       4           129.39 /_  174.5 =    -128.79 +j    12.462
75   Resid           1452.8 /_  102.5 =     -313.44 +j    1418.6
------------
76       1           1491.6 /_  107.3 =    -442.35 +j    1424.5
76       2           6.5084 /_  149.9 =    -5.6312 +j    3.2634
76       3           6.6093 /_   29.5 =     5.7511 +j    3.2569
76       4           129.39 /_   -5.5 =     128.79 +j    -12.46
76   Resid           1452.8 /_  -77.5 =      313.44 +j   -1418.6

ELEMENT = "Line.LINE76"
76       1           1491.6 /_  -72.7 =     442.35 +j   -1424.5
76       2           6.5084 /_  -30.1 =     5.6312 +j   -3.2634
76       3           6.6093 /_ -150.5 =    -5.7511 +j   -3.2569
76       4           129.39 /_  174.5 =    -128.79 +j    12.461
76   Resid           1452.8 /_  102.5 =     -313.44 +j    1418.6
------------
77       1           1491.6 /_  107.3 =    -442.35 +j    1424.5
77       2           6.4693 /_  149.9 =    -5.5967 +j    3.2449
77       3           6.5691 /_   29.5 =     5.7153 +j    3.2384
77       4           129.39 /_   -5.5 =     128.79 +j   -12.459
77   Resid           1452.8 /_  -77.5 =      313.44 +j   -1418.6

ELEMENT = "Line.LINE77"
77       1           1491.6 /_  -72.7 =     442.35 +j   -1424.5
77       2           6.4693 /_  -30.1 =     5.5967 +j   -3.2449
77       3           6.5691 /_ -150.5 =    -5.7153 +j   -3.2384
77       4           129.39 /_  174.5 =    -128.79 +j     12.46
77   Resid           1452.8 /_  102.5 =     -313.45 +j    1418.6
------------
78       1           1491.7 /_  107.3 =    -442.35 +j    1424.6
78       2           6.4303 /_  149.9 =    -5.5623 +j    3.2263
78       3           6.5288 /_   29.5 =     5.6796 +j    3.2199
78       4           129.39 /_   -5.5 =     128.79 +j   -12.458
78   Resid           1452.8 /_  -77.5 =      313.44 +j   -1418.6

ELEMENT = "Line.LINE78"
78       1           1491.7 /_  -72.7 =     442.35 +j   -1424.6
78       2           6.4303 /_  -30.1 =     5.5623 +j   -3.2263
78       3           6.5288 /_ -150.5 =    -5.6796 +j   -3.2199
78       4           129.39 /_  174.5 =    -128.79 +j    12.459
78   Resid           1452.8 /_  102.5 =     -313.45 +j    1418.6
------------
79       1           1491.7 /_  107.3 =    -442.35 +j    1424.6
79       2           6.3912 /_  149.9 =    -5.5279 +j    3.2078
79       3           6.4886 /_   29.6 =     5.6439 +j    3.2013
79       4           129.39 /_   -5.5 =     128.79 +j   -12.457
79   Resid           1452.8 /_  -77.5 =      313.44 +j   -1418.5

ELEMENT = "Line.LINE79"
79       1           1491.7 /_  -72.7 =     442.35 +j   -1424.6
79       2           6.3912 /_  -30.1 =     5.5279 +j   -3.2078
79       3           6.4886 /_ -150.4 =    -5.6439 +j   -3.2013
79       4           129.39 /_  174.5 =    -128.79 +j    12.459
79   Resid           1452.8 /_  102.5 =     -313.45 +j    1418.5
------------
80       1           1491.7 /_  107.2 =    -442.35 +j    1424.6
80       2            6.352 /_  149.9 =    -5.4934 +j    3.1892
80       3           6.4484 /_   29.6 =     5.6082 +j    3.1828
80       4           129.39 /_   -5.5 =     128.79 +j   -12.457
80   Resid           1452.8 /_  -77.5 =      313.45 +j   -1418.5

ELEMENT = "Line.LINE80"
80       1           1491.7 /_  -72.8 =     442.35 +j   -1424.6
80       2            6.352 /_  -30.1 =     5.4934 +j   -3.1892
80       3           6.4484 /_ -150.4 =    -5.6082 +j   -3.1828
80       4           129.39 /_  174.5 =    -128.79 +j    12.458
80   Resid           1452.8 /_  102.5 =     -313.45 +j    1418.5
------------
81       1           1491.7 /_  107.2 =    -442.35 +j    1424.6
81       2           6.3129 /_  149.9 =     -5.459 +j    3.1706
81       3           6.4081 /_   29.6 =     5.5725 +j    3.1642
81       4           129.39 /_   -5.5 =     128.79 +j   -12.456
81   Resid           1452.7 /_  -77.5 =      313.45 +j   -1418.5

ELEMENT = "Line.LINE81"
81       1           1491.7 /_  -72.8 =     442.35 +j   -1424.6
81       2           6.3129 /_  -30.1 =      5.459 +j   -3.1706
81       3           6.4081 /_ -150.4 =    -5.5725 +j   -3.1642
81       4           129.39 /_  174.5 =    -128.79 +j    12.457
81   Resid           1452.7 /_  102.5 =     -313.45 +j    1418.5
------------
82       1           1491.8 /_  107.2 =    -442.35 +j    1424.7
82       2           6.2738 /_  149.8 =    -5.4245 +j    3.1519
82       3           6.3679 /_   29.6 =     5.5367 +j    3.1455
82       4           129.39 /_   -5.5 =     128.79 +j   -12.455
82   Resid           1452.7 /_  -77.5 =      313.45 +j   -1418.5

ELEMENT = "Line.LINE82"
82       1           1491.8 /_  -72.8 =     442.35 +j   -1424.7
82       2           6.2738 /_  -30.2 =     5.4245 +j   -3.1519
82       3           6.3679 /_ -150.4 =    -5.5367 +j   -3.1455
82       4           129.39 /_  174.5 =    -128.79 +j    12.456
82   Resid           1452.7 /_  102.5 =     -313.45 +j    1418.5
------------
83       1           1491.8 /_  107.2 =    -442.35 +j    1424.7
83       2           6.2346 /_  149.8 =      -5.39 +j    3.1333
83       3           6.3276 /_   29.6 =      5.501 +j    3.1269
83       4           129.39 /_   -5.5 =     128.79 +j   -12.454
83   Resid           1452.7 /_  -77.5 =      313.45 +j   -1418.5

ELEMENT = "Line.LINE83"
83       1           1491.8 /_  -72.8 =     442.35 +j   -1424.7
83       2           6.2346 /_  -30.2 =       5.39 +j   -3.1333
83       3           6.3276 /_ -150.4 =     -5.501 +j   -3.1269
83       4           129.39 /_  174.5 =    -128.79 +j    12.456
83   Resid           1452.7 /_  102.5 =     -313.45 +j    1418.5
------------
84       1           1491.8 /_  107.2 =    -442.35 +j    1424.7
84       2           6.1954 /_  149.8 =    -5.3556 +j    3.1146
84       3           6.2874 /_   29.6 =     5.4653 +j    3.1082
84       4           129.39 /_   -5.5 =     128.79 +j   -12.453
84   Resid           1452.7 /_  -77.5 =      313.45 +j   -1418.5

ELEMENT = "Line.LINE84"
84       1           1491.8 /_  -72.8 =     442.35 +j   -1424.7
84       2           6.1954 /_  -30.2 =     5.3556 +j   -3.1146
84       3           6.2874 /_ -150.4 =    -5.4653 +j   -3.1082
84       4           129.39 /_  174.5 =    -128.78 +j    12.455
84   Resid           1452.7 /_  102.5 =     -313.45 +j    1418.5
------------
85       1           1491.8 /_  107.2 =    -442.35 +j    1424.7
85       2           6.1562 /_  149.8 =    -5.3211 +j    3.0959
85       3           6.2471 /_   29.6 =     5.4296 +j    3.0896
85       4           129.39 /_   -5.5 =     128.79 +j   -12.453
85   Resid           1452.7 /_  -77.5 =      313.45 +j   -1418.5

ELEMENT = "Line.LINE85"
85       1           1491.8 /_  -72.8 =     442.35 +j   -1424.7
85       2           6.1562 /_  -30.2 =     5.3211 +j   -3.0959
85       3           6.2471 /_ -150.4 =    -5.4296 +j   -3.0896
85       4           129.38 /_  174.5 =    -128.78 +j    12.454
85   Resid           1452.7 /_  102.5 =     -313.45 +j    1418.5
------------
86       1           1491.8 /_  107.2 =    -442.34 +j    1424.8
86       2            6.117 /_  149.8 =    -5.2867 +j    3.0772
86       3           6.2068 /_   29.7 =     5.3939 +j    3.0709
86       4           129.39 /_   -5.5 =     128.78 +j   -12.452
86   Resid           1452.7 /_  -77.5 =      313.45 +j   -1418.5

ELEMENT = "Line.LINE86"
86       1           1491.8 /_  -72.8 =     442.34 +j   -1424.8
86       2            6.117 /_  -30.2 =     5.2867 +j   -3.0772
86       3           6.2068 /_ -150.3 =    -5.3939 +j   -3.0709
86       4           129.38 /_  174.5 =    -128.78 +j    12.453
86   Resid           1452.7 /_  102.5 =     -313.45 +j    1418.5
------------
87       1           1491.9 /_  107.2 =    -442.34 +j    1424.8
87       2           6.0778 /_  149.8 =    -5.2522 +j    3.0585
87       3           6.1665 /_   29.7 =     5.3582 +j    3.0521
87       4           129.38 /_   -5.5 =     128.78 +j   -12.451
87   Resid           1452.7 /_  -77.5 =      313.45 +j   -1418.4

ELEMENT = "Line.LINE87"
87       1           1491.9 /_  -72.8 =     442.34 +j   -1424.8
87       2           6.0778 /_  -30.2 =     5.2522 +j   -3.0585
87       3           6.1665 /_ -150.3 =    -5.3582 +j   -3.0521
87       4           129.38 /_  174.5 =    -128.78 +j    12.453
87   Resid           1452.7 /_  102.5 =     -313.46 +j    1418.4
------------
88       1           1491.9 /_  107.2 =    -442.34 +j    1424.8
88       2           6.0386 /_  149.8 =    -5.2177 +j    3.0398
88       3           6.1262 /_   29.7 =     5.3225 +j    3.0334
88       4           129.38 /_   -5.5 =     128.78 +j    -12.45
88   Resid           1452.7 /_  -77.5 =      313.45 +j   -1418.4

ELEMENT = "Line.LINE88"
88       1           1491.9 /_  -72.8 =     442.34 +j   -1424.8
88       2           6.0386 /_  -30.2 =     5.2177 +j   -3.0398
...